# generated using pymatgen
data_Ga2O3
_symmetry_space_group_name_H-M   C2/m
_cell_length_a   12.45244640
_cell_length_b   3.08296874
_cell_length_c   5.87615337
_cell_angle_alpha   90.00000000
_cell_angle_beta   103.68360198
_cell_angle_gamma   90.00000000
_symmetry_Int_Tables_number   12
_chemical_formula_structural   Ga2O3
_chemical_formula_sum   'Ga8 O12'
_cell_volume   219.18557459
_cell_formula_units_Z   4
loop_
 _symmetry_equiv_pos_site_id
 _symmetry_equiv_pos_as_xyz
  1  'x, y, z'
  2  '-x, -y, -z'
  3  '-x, y, -z'
  4  'x, -y, z'
  5  'x+1/2, y+1/2, z'
  6  '-x+1/2, -y+1/2, -z'
  7  '-x+1/2, y+1/2, -z'
  8  'x+1/2, -y+1/2, z'
loop_
 _atom_site_type_symbol
 _atom_site_label
 _atom_site_symmetry_multiplicity
 _atom_site_fract_x
 _atom_site_fract_y
 _atom_site_fract_z
 _atom_site_occupancy
  Ga  Ga1  4  0.089878  0.000000  0.794761  1
  Ga  Ga2  4  0.158410  0.500000  0.314082  1
  O  O3  4  0.004103  0.500000  0.743509  1
  O  O4  4  0.163503  0.000000  0.108953  1
  O  O5  4  0.173598  0.000000  0.564294  1
