# generated using pymatgen
data_K2O2
_symmetry_space_group_name_H-M   P-62m
_cell_length_a   7.14375032
_cell_length_b   7.14375032
_cell_length_c   5.12295892
_cell_angle_alpha   90.00000000
_cell_angle_beta   90.00000000
_cell_angle_gamma   120.00000000
_symmetry_Int_Tables_number   189
_chemical_formula_structural   K2O2
_chemical_formula_sum   'K6 O6'
_cell_volume   226.41439741
_cell_formula_units_Z   3
loop_
 _symmetry_equiv_pos_site_id
 _symmetry_equiv_pos_as_xyz
  1  'x, y, z'
  2  '-x+y, -x, -z'
  3  '-y, x-y, z'
  4  'x, y, -z'
  5  '-x+y, -x, z'
  6  '-y, x-y, -z'
  7  'y, x, z'
  8  '-x, -x+y, -z'
  9  'x-y, -y, z'
  10  'y, x, -z'
  11  '-x, -x+y, z'
  12  'x-y, -y, -z'
loop_
 _atom_site_type_symbol
 _atom_site_label
 _atom_site_symmetry_multiplicity
 _atom_site_fract_x
 _atom_site_fract_y
 _atom_site_fract_z
 _atom_site_occupancy
  K  K1  3  0.000000  0.368149  0.000000  1
  K  K2  3  0.000000  0.705568  0.500000  1
  O  O3  4  0.333333  0.666667  0.349271  1
  O  O4  2  0.000000  0.000000  0.148893  1
