# generated using pymatgen
data_K2O
_symmetry_space_group_name_H-M   C2/c
_cell_length_a   7.38990335
_cell_length_b   7.39415233
_cell_length_c   7.59035991
_cell_angle_alpha   90.00000000
_cell_angle_beta   118.40553961
_cell_angle_gamma   90.00000000
_symmetry_Int_Tables_number   15
_chemical_formula_structural   K2O
_chemical_formula_sum   'K8 O4'
_cell_volume   364.81779786
_cell_formula_units_Z   4
loop_
 _symmetry_equiv_pos_site_id
 _symmetry_equiv_pos_as_xyz
  1  'x, y, z'
  2  '-x, -y, -z'
  3  '-x, y, -z+1/2'
  4  'x, -y, z+1/2'
  5  'x+1/2, y+1/2, z'
  6  '-x+1/2, -y+1/2, -z'
  7  '-x+1/2, y+1/2, -z+1/2'
  8  'x+1/2, -y+1/2, z+1/2'
loop_
 _atom_site_type_symbol
 _atom_site_label
 _atom_site_symmetry_multiplicity
 _atom_site_fract_x
 _atom_site_fract_y
 _atom_site_fract_z
 _atom_site_occupancy
  K  K1  8  0.198528  0.122457  0.148461  1
  O  O2  4  0.000000  0.129369  0.750000  1
