# generated using pymatgen
data_K2O
_symmetry_space_group_name_H-M   C2/m
_cell_length_a   7.39176845
_cell_length_b   4.27764968
_cell_length_c   10.17037681
_cell_angle_alpha   90.00000000
_cell_angle_beta   104.74089647
_cell_angle_gamma   90.00000000
_symmetry_Int_Tables_number   12
_chemical_formula_structural   K2O
_chemical_formula_sum   'K8 O4'
_cell_volume   310.99677080
_cell_formula_units_Z   4
loop_
 _symmetry_equiv_pos_site_id
 _symmetry_equiv_pos_as_xyz
  1  'x, y, z'
  2  '-x, -y, -z'
  3  '-x, y, -z'
  4  'x, -y, z'
  5  'x+1/2, y+1/2, z'
  6  '-x+1/2, -y+1/2, -z'
  7  '-x+1/2, y+1/2, -z'
  8  'x+1/2, -y+1/2, z'
loop_
 _atom_site_type_symbol
 _atom_site_label
 _atom_site_symmetry_multiplicity
 _atom_site_fract_x
 _atom_site_fract_y
 _atom_site_fract_z
 _atom_site_occupancy
  K  K1  4  0.115648  0.000000  0.330339  1
  K  K2  4  0.205987  0.500000  0.111237  1
  O  O3  4  0.090940  0.500000  0.784370  1
