# generated using pymatgen
data_SiO2
_symmetry_space_group_name_H-M   Cmcm
_cell_length_a   14.08309666
_cell_length_b   17.91960143
_cell_length_c   5.28555321
_cell_angle_alpha   90.00000000
_cell_angle_beta   90.00000000
_cell_angle_gamma   90.00000000
_symmetry_Int_Tables_number   63
_chemical_formula_structural   SiO2
_chemical_formula_sum   'Si24 O48'
_cell_volume   1333.88059651
_cell_formula_units_Z   24
loop_
 _symmetry_equiv_pos_site_id
 _symmetry_equiv_pos_as_xyz
  1  'x, y, z'
  2  '-x+1/2, -y+1/2, -z'
  3  '-x+1/2, -y+1/2, z+1/2'
  4  'x, y, -z+1/2'
  5  'x+1/2, -y+1/2, -z'
  6  '-x, y, z'
  7  '-x, y, -z+1/2'
  8  'x+1/2, -y+1/2, z+1/2'
  9  'x+1/2, y+1/2, z'
  10  '-x, -y, -z'
  11  '-x, -y, z+1/2'
  12  'x+1/2, y+1/2, -z+1/2'
  13  'x, -y, -z'
  14  '-x+1/2, y+1/2, z'
  15  '-x+1/2, y+1/2, -z+1/2'
  16  'x, -y, z+1/2'
loop_
 _atom_site_type_symbol
 _atom_site_label
 _atom_site_symmetry_multiplicity
 _atom_site_fract_x
 _atom_site_fract_y
 _atom_site_fract_z
 _atom_site_occupancy
  Si  Si1  8  0.205851  0.211440  0.250000  1
  Si  Si2  8  0.206970  0.452251  0.750000  1
  Si  Si3  4  0.000000  0.276742  0.250000  1
  Si  Si4  4  0.000000  0.381470  0.750000  1
  O  O5  8  0.000000  0.329439  0.000744  1
  O  O6  8  0.091723  0.222267  0.250000  1
  O  O7  8  0.093543  0.434299  0.750000  1
  O  O8  8  0.229731  0.123219  0.250000  1
  O  O9  8  0.234056  0.500000  0.000000  1
  O  O10  8  0.250000  0.250000  0.000000  1
