# generated using pymatgen
data_SiO2
_symmetry_space_group_name_H-M   P6_422
_cell_length_a   6.86335148
_cell_length_b   6.86335148
_cell_length_c   13.58155848
_cell_angle_alpha   90.00000000
_cell_angle_beta   90.00000000
_cell_angle_gamma   120.00000000
_symmetry_Int_Tables_number   181
_chemical_formula_structural   SiO2
_chemical_formula_sum   'Si12 O24'
_cell_volume   554.05479736
_cell_formula_units_Z   12
loop_
 _symmetry_equiv_pos_site_id
 _symmetry_equiv_pos_as_xyz
  1  'x, y, z'
  2  'x-y, x, z+2/3'
  3  '-y, x-y, z+1/3'
  4  '-x, -y, z'
  5  '-x+y, -x, z+2/3'
  6  'y, -x+y, z+1/3'
  7  '-y, -x, -z+1/3'
  8  '-x, -x+y, -z+2/3'
  9  '-x+y, y, -z'
  10  'y, x, -z+1/3'
  11  'x, x-y, -z+2/3'
  12  'x-y, -y, -z'
loop_
 _atom_site_type_symbol
 _atom_site_label
 _atom_site_symmetry_multiplicity
 _atom_site_fract_x
 _atom_site_fract_y
 _atom_site_fract_z
 _atom_site_occupancy
  Si  Si1  12  0.177269  0.405035  0.617765  1
  O  O2  6  0.000000  0.183497  0.333333  1
  O  O3  6  0.000000  0.500000  0.029612  1
  O  O4  6  0.187717  0.375435  0.500000  1
  O  O5  6  0.212570  0.606285  0.333333  1
