# generated using pymatgen
data_SiO2
_symmetry_space_group_name_H-M   I4_1/amd
_cell_length_a   10.39271988
_cell_length_b   10.39271988
_cell_length_c   34.79730422
_cell_angle_alpha   90.00000000
_cell_angle_beta   90.00000000
_cell_angle_gamma   90.00000000
_symmetry_Int_Tables_number   141
_chemical_formula_structural   SiO2
_chemical_formula_sum   'Si64 O128'
_cell_volume   3758.40903330
_cell_formula_units_Z   64
loop_
 _symmetry_equiv_pos_site_id
 _symmetry_equiv_pos_as_xyz
  1  'x, y, z'
  2  '-y, x+1/2, z+1/4'
  3  '-x+1/2, -y+1/2, z+1/2'
  4  'y, -x+1/2, z+1/4'
  5  'x, -y+1/2, -z+1/4'
  6  '-y, -x, -z'
  7  '-x, y+1/2, -z+1/4'
  8  'y+1/2, x+1/2, -z+1/2'
  9  '-x, -y+1/2, -z+1/4'
  10  'y, -x, -z'
  11  'x, y+1/2, -z+1/4'
  12  '-y+1/2, x+1/2, -z+1/2'
  13  '-x, y, z'
  14  'y, x+1/2, z+1/4'
  15  'x+1/2, -y+1/2, z+1/2'
  16  '-y, -x+1/2, z+1/4'
  17  'x+1/2, y+1/2, z+1/2'
  18  '-y+1/2, x, z+3/4'
  19  '-x, -y, z'
  20  'y+1/2, -x, z+3/4'
  21  'x+1/2, -y, -z+3/4'
  22  '-y+1/2, -x+1/2, -z+1/2'
  23  '-x+1/2, y, -z+3/4'
  24  'y, x, -z'
  25  '-x+1/2, -y, -z+3/4'
  26  'y+1/2, -x+1/2, -z+1/2'
  27  'x+1/2, y, -z+3/4'
  28  '-y, x, -z'
  29  '-x+1/2, y+1/2, z+1/2'
  30  'y+1/2, x, z+3/4'
  31  'x, -y, z'
  32  '-y+1/2, -x, z+3/4'
loop_
 _atom_site_type_symbol
 _atom_site_label
 _atom_site_symmetry_multiplicity
 _atom_site_fract_x
 _atom_site_fract_y
 _atom_site_fract_z
 _atom_site_occupancy
  Si  Si1  16  0.000000  0.151260  0.679631  1
  Si  Si2  16  0.000000  0.153226  0.840542  1
  Si  Si3  16  0.000000  0.214341  0.493268  1
  Si  Si4  16  0.218352  0.250000  0.625000  1
  O  O5  32  0.127460  0.191078  0.865130  1
  O  O6  32  0.128291  0.219376  0.662200  1
  O  O7  16  0.000000  0.167049  0.726089  1
  O  O8  16  0.000000  0.228664  0.799827  1
  O  O9  16  0.128081  0.128081  0.500000  1
  O  O10  8  0.000000  0.000000  0.167401  1
  O  O11  8  0.000000  0.000000  0.331736  1
