# generated using pymatgen
data_TiO2
_symmetry_space_group_name_H-M   Imma
_cell_length_a   5.94631953
_cell_length_b   6.57473701
_cell_length_c   6.57480349
_cell_angle_alpha   90.00000000
_cell_angle_beta   90.00000000
_cell_angle_gamma   90.00000000
_symmetry_Int_Tables_number   74
_chemical_formula_structural   TiO2
_chemical_formula_sum   'Ti8 O16'
_cell_volume   257.04514496
_cell_formula_units_Z   8
loop_
 _symmetry_equiv_pos_site_id
 _symmetry_equiv_pos_as_xyz
  1  'x, y, z'
  2  '-x+1/2, -y+1/2, -z+1/2'
  3  '-x, -y+1/2, z'
  4  'x, y+1/2, -z'
  5  '-x, y+1/2, -z'
  6  'x, -y+1/2, z'
  7  'x, -y, -z'
  8  '-x, y, z'
  9  'x+1/2, y+1/2, z+1/2'
  10  '-x, -y, -z'
  11  '-x+1/2, -y, z+1/2'
  12  'x+1/2, y, -z+1/2'
  13  '-x+1/2, y, -z+1/2'
  14  'x+1/2, -y, z+1/2'
  15  'x+1/2, -y+1/2, -z+1/2'
  16  '-x+1/2, y+1/2, z+1/2'
loop_
 _atom_site_type_symbol
 _atom_site_label
 _atom_site_symmetry_multiplicity
 _atom_site_fract_x
 _atom_site_fract_y
 _atom_site_fract_z
 _atom_site_occupancy
  Ti  Ti1  4  0.000000  0.250000  0.754755  1
  Ti  Ti2  4  0.250000  0.250000  0.250000  1
  O  O3  8  0.000000  0.054899  0.250383  1
  O  O4  8  0.249851  0.250000  0.945081  1
